wang_VLN_Node.Txt

LINE-GROUND and LINE-LINE VOLTAGES BY BUS & NODE

Bus  Node    VLN (kV)   Angle      pu     Base kV    Node-Node   VLL (kV)  Angle      pu

B1 . 1       6.2575 /_   -0.2   0.98529    11.000        1-2     10.838 /_   29.8    0.9853
   - 2        6.258 /_ -120.2   0.98538    11.000        2-3      10.84 /_  -90.2   0.98543
   - 3       6.2589 /_  119.8   0.98551    11.000        3-1      10.84 /_  149.8   0.98546
B2 . 1       6.2497 /_   -0.2   0.98407    11.000        1-2     10.829 /_   29.9   0.98448
   - 2        6.255 /_ -120.2    0.9849    11.000        2-3     10.831 /_  -90.1   0.98463
   - 3       6.2541 /_  119.9   0.98476    11.000        3-1     10.831 /_  149.8   0.98462
B3 . 1       5.6759 /_   -2.5   0.89372    11.000        1-2     9.9247 /_   27.9   0.90224
   - 2       5.7884 /_ -122.4   0.91143    11.000        2-3     10.032 /_  -92.3   0.91203
   - 3       5.8079 /_  117.8   0.91451    11.000        3-1     9.9595 /_  147.3   0.90541
B4 . 1       5.4417 /_   -2.4   0.85685    11.000        1-2     9.5359 /_   28.0    0.8669
   - 2       5.5712 /_ -122.4   0.87724    11.000        2-3     9.6593 /_  -92.2   0.87812
   - 3        5.598 /_  117.9   0.88146    11.000        3-1     9.5762 /_  147.3   0.87056
B5 . 1       5.4161 /_   -2.9   0.85281    11.000        1-2     9.4945 /_   27.5   0.86313
   - 2       5.5509 /_ -122.9   0.87405    11.000        2-3     9.6202 /_  -92.6   0.87457
   - 3       5.5763 /_  117.5   0.87804    11.000        3-1     9.5395 /_  146.8   0.86723
B6 . 1       5.2767 /_   -2.9   0.83086    11.000        1-2      9.263 /_   27.5   0.84209
   - 2       5.4217 /_ -122.9   0.85369    11.000        2-3     9.3981 /_  -92.6   0.85437
   - 3       5.4513 /_  117.5   0.85836    11.000        3-1     9.3113 /_  146.8   0.84648
B7 . 1       5.1094 /_   -2.9   0.80451    11.000        1-2     8.9851 /_   27.6   0.81683
   - 2       5.2666 /_ -122.9   0.82927    11.000        2-3     9.1316 /_  -92.5   0.83014
   - 3       5.3013 /_  117.6   0.83474    11.000        3-1     9.0375 /_  146.7   0.82159
B8 . 1       4.9978 /_   -2.9   0.78695    11.000        1-2     8.7999 /_   27.7   0.79999
   - 2       5.1632 /_ -122.9   0.81299    11.000        2-3     8.9539 /_  -92.5   0.81399
   - 3       5.2013 /_  117.6     0.819    11.000        3-1      8.855 /_  146.7     0.805
